@<TRIPOS>MOLECULE
CJL
44   47    1
SMALL
USER_CHARGES


@<TRIPOS>ATOM
      1 C10        27.5850    7.1620  -19.5440 C.3       1 CJL         0.0000 
      2 C13        31.3880    7.5810  -15.8300 C.3       1 CJL         0.0000 
      3 C18        33.6860    9.9410  -17.1900 C.3       1 CJL         0.0000 
      4 C17        31.5840    9.4240  -14.3600 C.3       1 CJL         0.0000 
      5 C16        32.5430   10.0900  -15.3570 C.3       1 CJL         0.0000 
      6 C14        32.3160    8.3000  -16.8220 C.3       1 CJL         0.0000 
      7 C19        34.4290   11.2120  -17.2150 C.3       1 CJL         0.0000 
      8 C21        34.9080    9.2100  -17.5640 C.3       1 CJL         0.0000 
      9 N12        30.6370    8.5120  -15.0040 N.pl3     1 CJL         0.0000 
     10 C02        27.2830    9.9610  -14.6680 C.ar      1 CJL         0.0000 
     11 C04        29.2010    8.8070  -15.2340 C.ar      1 CJL         0.0000 
     12 C05        28.5000    8.0960  -16.2180 C.ar      1 CJL         0.0000 
     13 C06        27.1400    8.3910  -16.3720 C.ar      1 CJL         0.0000 
     14 C08        26.8850    6.6930  -18.2690 C.3       1 CJL         0.0000 
     15 C09        26.1540    6.6130  -19.6130 C.3       1 CJL         0.0000 
     16 N01        26.6290   10.9780  -13.8440 N.pl3     1 CJL         0.0000 
     17 N03        28.5820    9.7150  -14.4830 N.ar      1 CJL         0.0000 
     18 N07        26.3310    7.7100  -17.3800 N.pl3     1 CJL         0.0000 
     19 N11        26.5780    9.3070  -15.5870 N.pl3     1 CJL         0.0000 
     20 N15        33.1680    9.2230  -16.2380 N.3       1 CJL         0.0000 
     21 O20        35.6520   10.4820  -17.5810 O.3       1 CJL         0.0000 
     22 H101       28.1311    6.2503  -19.7860 H         1 CJL         0.0000 
     23 H102       27.3584    8.2265  -19.4833 H         1 CJL         0.0000 
     24 H131       31.9791    6.9250  -15.1910 H         1 CJL         0.0000 
     25 H132       30.6952    6.9432  -16.3789 H         1 CJL         0.0000 
     26 HC18       33.0041    9.9260  -18.0402 H         1 CJL         0.0000 
     27 H171       31.0342   10.1931  -13.8174 H         1 CJL         0.0000 
     28 H172       32.1601    8.8790  -13.6122 H         1 CJL         0.0000 
     29 H161       33.2982   10.6537  -14.8092 H         1 CJL         0.0000 
     30 H162       32.0046   10.8514  -15.9214 H         1 CJL         0.0000 
     31 H141       31.7151    8.7952  -17.5848 H         1 CJL         0.0000 
     32 H142       32.9031    7.5614  -17.3678 H         1 CJL         0.0000 
     33 H191       34.5411   11.5501  -16.1849 H         1 CJL         0.0000 
     34 H192       34.1014   11.7697  -18.0923 H         1 CJL         0.0000 
     35 H211       34.7931    8.8804  -18.5966 H         1 CJL         0.0000 
     36 H212       35.2365    8.6465  -16.6907 H         1 CJL         0.0000 
     37 HC05       29.0111    7.3576  -16.8179 H         1 CJL         0.0000 
     38 HC08       27.2231    5.7588  -17.8205 H         1 CJL         0.0000 
     39 H091       26.3806    5.5780  -19.8690 H         1 CJL         0.0000 
     40 H092       25.6076    7.5550  -19.5662 H         1 CJL         0.0000 
     41 H011       25.6469   11.1762  -13.9714 H         1 CJL         0.0000 
     42 H012       27.1597   11.4818  -13.1479 H         1 CJL         0.0000 
     43 HN07       25.3521    7.9376  -17.4800 H         1 CJL         0.0000 
     44 HN11       25.5934    9.5013  -15.7009 H         1 CJL         0.0000 
@<TRIPOS>BOND
     1    1   14 1    
     2    1   15 1    
     3    1   22 1    
     4    1   23 1    
     5    2    6 1    
     6    2    9 1    
     7    2   24 1    
     8    2   25 1    
     9    3    7 1    
    10    3    8 1    
    11    3   20 1    
    12    3   26 1    
    13    4    5 1    
    14    4    9 1    
    15    4   27 1    
    16    4   28 1    
    17    5   20 1    
    18    5   29 1    
    19    5   30 1    
    20    6   20 1    
    21    6   31 1    
    22    6   32 1    
    23    7   21 1    
    24    7   33 1    
    25    7   34 1    
    26    8   21 1    
    27    8   35 1    
    28    8   36 1    
    29    9   11 1    
    30   10   16 1    
    31   10   17 ar   
    32   10   19 ar   
    33   11   12 ar   
    34   11   17 ar   
    35   12   13 ar   
    36   12   37 1    
    37   13   18 1    
    38   13   19 ar   
    39   14   15 1    
    40   14   18 1    
    41   14   38 1    
    42   15   39 1    
    43   15   40 1    
    44   16   41 1    
    45   16   42 1    
    46   18   43 1    
    47   19   44 1    
@<TRIPOS>SUBSTRUCTURE
     1 CJL         1 GROUP             0 A     ****    0 ROOT    
